data_set
_cell_length_a                         0.7937658129E+01
_cell_length_b                         0.7937658129E+01
_cell_length_c                         0.7937658129E+01
_cell_angle_alpha                      0.9000000000E+02
_cell_angle_beta                       0.9000000000E+02
_cell_angle_gamma                      0.9000000000E+02
_cell_volume                           0.5001233947E+03
loop_
  _atom_site_label                   
  _atom_site_fract_x                 
  _atom_site_fract_y                 
  _atom_site_fract_z                 
   O    0.4979059911E+00    0.5000000000E+00    0.5000000000E+00
   H    0.5743803105E+00    0.4040196984E+00    0.5000000000E+00
   H    0.5743803105E+00    0.5959803016E+00    0.5000000000E+00
_chemical_formula_analytical              ' O1 H2'                                                                                            
_symmetry_Int_Tables_number              25
_symmetry_space_group_name_H-M        'P intsb unknown'

loop_
  _symmetry_equiv_pos_as_xyz           
  +x,+y,+z
  +x,-y,+z
  +x,+y,-z
  +x,-y,-z
